# generated using pymatgen
data_LiErS2
_symmetry_space_group_name_H-M   'P 1'
_cell_length_a   3.87660111
_cell_length_b   3.87660111
_cell_length_c   18.50851592
_cell_angle_alpha   90.00000000
_cell_angle_beta   90.00000000
_cell_angle_gamma   120.00000000
_symmetry_Int_Tables_number   1
_chemical_formula_structural   LiErS2
_chemical_formula_sum   'Li3 Er3 S6'
_cell_volume   240.88206196
_cell_formula_units_Z   3
loop_
 _symmetry_equiv_pos_site_id
 _symmetry_equiv_pos_as_xyz
  1  'x, y, z'
loop_
 _atom_site_type_symbol
 _atom_site_label
 _atom_site_symmetry_multiplicity
 _atom_site_fract_x
 _atom_site_fract_y
 _atom_site_fract_z
 _atom_site_occupancy
  Li  Li0  1  0.666667  0.333333  0.833333  1.0
  Li  Li1  1  0.333333  0.666667  0.166667  1.0
  Li  Li2  1  0.000000  0.000000  0.500000  1.0
  Er  Er3  1  0.000000  0.000000  0.000000  1.0
  Er  Er4  1  0.666667  0.333333  0.333333  1.0
  Er  Er5  1  0.333333  0.666667  0.666667  1.0
  S  S6  1  0.333333  0.666667  0.917094  1.0
  S  S7  1  0.000000  0.000000  0.749572  1.0
  S  S8  1  0.000000  0.000000  0.250428  1.0
  S  S9  1  0.666667  0.333333  0.082906  1.0
  S  S10  1  0.666667  0.333333  0.583761  1.0
  S  S11  1  0.333333  0.666667  0.416239  1.0
